74
i =      128, E =      -494.6541653260
C -0.0360699892 -0.0072780925 -0.2516694143
C 1.1978300893 0.7049733686 -0.2947125644
C 2.4346435596 -0.0080152932 -0.3014377110
C 3.670438358 0.7055194673 -0.2851464747
C 4.9083844976 -0.0015614394 -0.2594954630
C 6.1426456005 0.7050604153 -0.1464576992
C 7.3769302439 0.0041241112 -0.0777848245
C 8.6091851324 0.7309773165 0.0575794033
C 9.8468384892 0.0074469424 -0.0443338702
C 11.0805722273 0.7125631071 -0.0772925507
C 12.3166611088 -0.0030453514 -0.1544188588
C 13.5493300163 0.7057711815 -0.2164410993
C 1.1985011368 2.1327001755 -0.3059126756
C 2.4353380293 2.8462609565 -0.2847091979
C 3.6682719912 2.1329111815 -0.2394579555
C 4.8887443289 2.8366876644 -0.0801043731
C 6.124600631 2.1252752626 0.0083529386
C 7.3125252286 2.7982182741 0.4050899386
C 8.5980866185 2.1366573593 0.3107328478
C 9.8614574213 2.8579920081 0.2615433507
C 11.0784776661 2.1386782813 -0.0096037497
C 12.3172724626 2.8465861431 -0.1282880829
C 13.546755801 2.1357498206 -0.2266002441
C 14.7846889614 2.84791501 -0.2850008196
C 2.4412396919 4.2729358538 -0.2537816401
C 3.6685065332 4.9870482524 -0.1321180222
C 4.8901466503 4.2625102366 0.0163188620
C 6.0680097748 4.9528120783 0.4166728316
C 7.063972367 4.0899093505 1.0020355031
C 9.9696051063 4.2594492737 0.4493478788
C 11.1204328788 4.9809155982 0.0627430237
C 12.3342635989 4.276093119 -0.1380605381
C 13.5673970567 4.9910971305 -0.2295601664
C 14.7934305986 4.2753456067 -0.2777113636
C 16.0281988485 4.9905757575 -0.2663755525
C 3.6770972412 6.4087313817 -0.0568386976
C 4.9230135063 7.1112685414 0.0831264987
C 6.1355136849 6.3980315877 0.3310708869
C 7.3921853804 7.127754151 0.2743878194
C 8.6589655074 6.5186509281 0.4551669821
C 9.862768638 7.1557932506 0.0707308737
C 11.1045036377 6.4251905206 -0.0011580199
C 12.3189953702 7.1264684049 -0.1563653041
C 13.5632974446 6.4150134076 -0.2147152415
C 14.7936557619 7.1295053199 -0.2262659644
C 16.0310829799 6.4129038203 -0.2229435503
C 17.2693008737 7.1254235314 -0.1436039989
C 4.9154559496 8.5447820211 -0.0193664330
C 6.1456683389 9.2591403112 -0.0543806326
C 7.3774625771 8.5445129282 0.0081333259
C 8.6114068374 9.2624760267 -0.1106635699
C 9.8582326374 8.5626882138 -0.1219006913
C 11.0930167749 9.2725512202 -0.2161001693
C 12.3243167274 8.5595025802 -0.2074404308
C 13.5597434925 9.2682752793 -0.2238478767
C 14.7946000911 8.5572144172 -0.2037878119
C 16.0289382634 9.2691575023 -0.1629695774
C 17.2650108838 8.5530371801 -0.1252655871
C 18.5000359003 9.2609347137 -0.0902612807
C 6.1442805343 10.6879439512 -0.1409258784
C 7.3742795044 11.3993064197 -0.2057439971
C 8.6107047353 10.6823733069 -0.2107994151
C 9.8479570952 11.3990666394 -0.2750368588
C 11.0864023454 10.695027654 -0.2686191420
C 12.3237322547 11.4062224513 -0.2657903519
C 13.5577550826 10.6989137447 -0.2253708690
C 14.7936676453 11.4141673731 -0.1574158487
C 16.027115654 10.6977213756 -0.1359880377
C 17.2595104457 11.4125612921 -0.1045186786
C 18.4959349315 10.6936849473 -0.1106334466
C 19.7272367736 11.4029642114 -0.1323518655
Ti 9.1450897699 5.2877675544 2.0590110454
O 7.5044572773 4.3332374167 2.2239194797
O 10.1966149803 5.9385814604 3.1558703690
