116
i =      135, E =     -1760.7023556146
C -0.252682881 0.0271169684 -0.5250211751
C 0.9849422001 0.7458406521 -0.5291212893
C 2.2148254401 0.0355407474 -0.4543133973
C 3.4565325184 0.7703381384 -0.4314860466
C 4.6865122174 0.0779919573 -0.3644847007
C 5.9414170626 0.8337985758 -0.3197363153
C 7.1472439167 0.0928187417 -0.2949950197
C 8.3869131477 0.8171429126 -0.2257053325
C 9.6102271871 0.0665920046 -0.3114830414
C 10.8677790557 0.7427495191 -0.4080823626
C 12.0898895185 0.0335158346 -0.4891205260
C 13.3399317708 0.7380863515 -0.5433440362
C 0.9839988368 2.1772872002 -0.6030154958
C 2.2262008752 2.9039701912 -0.5825149288
C 3.4617876849 2.2035668735 -0.4877789519
C 4.7049768111 2.9406399988 -0.4451210385
C 5.9729541765 2.2933953831 -0.3396605025
C 7.2492701403 3.0851271773 -0.2542341005
C 8.4170651904 2.2515957118 -0.1021301327
C 9.7235539568 2.8569488658 0.0453006859
C 10.9031349835 2.157660274 -0.3350179042
C 12.1247012015 2.864709152 -0.4853641448
C 13.345364565 2.1590486947 -0.5881810176
C 14.5768232117 2.8843388829 -0.6668781852
C 2.1992723005 4.3281962278 -0.6229950293
C 3.4290430775 5.0541942003 -0.5646473315
C 4.669289476 4.3573625073 -0.4914650856
C 5.9025933746 5.1016151461 -0.4550007415
C 7.1968476379 4.5769267041 -0.3560850931
C 9.8985788529 4.2102507414 0.4482000397
C 10.9296104209 4.9794122851 -0.1656062354
C 12.1065043743 4.2882368348 -0.5111624111
C 13.3203347158 5.0233557731 -0.6926071951
C 14.5530346614 4.3158030644 -0.7342639955
C 15.7807262222 5.0378898556 -0.6861117538
C 3.3872725832 6.4801137501 -0.5617384867
C 4.6139226474 7.2044407097 -0.5158693411
C 5.8140044383 6.5102365734 -0.4786257635
C 7.0801170422 7.1488076343 -0.4226631037
C 8.1771379385 6.2900749114 -0.3500014162
C 9.5036264774 7.0042757714 -0.3146460690
C 10.8092505207 6.3924624609 -0.3180844609
C 12.0291725137 7.135642428 -0.4625486251
C 13.2818791166 6.4429064301 -0.5911753586
C 14.5169133721 7.1720463956 -0.5821279885
C 15.7490294873 6.4650705494 -0.6281297350
C 16.9846388447 7.1897394251 -0.5723195129
C 4.6259475541 8.6292002335 -0.4916081464
C 5.8843140707 9.31114299 -0.4630584851
C 7.1092127422 8.5830945834 -0.4305204639
C 8.3518429117 9.266428784 -0.3940877062
C 9.546462083 8.4914473403 -0.3502495163
C 10.8020884182 9.2528498522 -0.3660639735
C 12.0379104756 8.5727741983 -0.4272196561
C 13.2842915742 9.3105693635 -0.4390896857
C 14.5144515646 8.6044905235 -0.4939956330
C 15.7538950024 9.3275086271 -0.4637358761
C 16.982856162 8.6152494769 -0.5075767404
C 18.2252283923 9.3330322528 -0.4824584729
C 5.8988056929 10.7299627011 -0.4702122530
C 7.1494439464 11.4294080592 -0.4723532532
C 8.3700643237 10.7106636082 -0.4234734893
C 9.6119222807 11.4360979714 -0.4059135787
C 10.8276843283 10.7110448729 -0.3700713588
C 12.0741315529 11.458089541 -0.3628095345
C 13.2981655475 10.7469558174 -0.3780417655
C 14.5417177901 11.4818562899 -0.3514456162
C 15.7597080994 10.7616807731 -0.3856062045
C 17.0064890264 11.4795650548 -0.3772054959
C 18.2346713139 10.7605279588 -0.4449558393
C 19.4863892315 11.4467126061 -0.4702370661
Ti 11.4402544409 4.630807061 5.3845719028
Ti 13.7967936823 3.2233163647 3.0765369635
Ti 13.5833622348 3.2901237771 7.9671427496
Ti 9.2248036604 6.0062979364 7.8627325693
Ti 9.3188202325 6.196424823 2.9412765602
Ti 12.8126348298 6.0238311278 8.2068272484
Ti 12.979394137 6.0189160448 2.8302627391
Ti 9.982755404 3.2681848112 8.1344618841
Ti 10.143283864 3.2352149623 2.6513122501
Ti 12.4592950724 1.2276300475 5.4387195673
Ti 10.4846491644 8.0677266881 5.4139212576
Ti 13.3021420147 7.6723399681 5.4764909118
Ti 9.6248946504 1.6209341579 5.3944597685
Ti 14.6810747667 4.5641478433 5.5315415239
Ti 8.2544247644 4.7270461107 5.3186999734
O 9.1632688948 4.6584346241 1.4876647814
O 9.0355306847 4.5749754749 9.0571307661
O 13.7440131934 4.7291600089 9.1605363947
O 13.9438646368 4.7291264593 1.9420061750
O 11.668866862 3.0448087913 8.5274074040
O 11.8519394951 3.0450390735 2.4904319892
O 11.110669131 6.2574903465 8.5232847997
O 11.2586932645 6.174998992 2.4776436418
O 10.8109829579 0.2509613915 5.3821571187
O 12.0804271561 9.0528702498 5.4637304610
O 13.4635239058 1.5253768785 3.9834781537
O 13.328108682 1.6030525728 6.9425871884
O 9.5453961851 7.7045956513 6.8576485282
O 9.5025432562 7.7794270581 3.8848552260
O 7.9668533615 3.0483525941 5.3662262891
O 14.9152438681 6.2645191979 5.4684628246
O 9.9714577158 4.7098408468 4.0875610415
O 9.9895440234 4.650660991 6.6801018445
O 12.8777116277 4.6514797555 6.7642163221
O 13.0165322197 4.5772703628 4.2538747336
O 11.6763239528 6.5811739438 5.3708585130
O 11.2213301017 2.7093425524 5.3818650743
O 9.4011256304 1.8480235617 3.5012943754
O 9.3114627491 1.8403698567 7.2321863563
O 13.4867739894 7.463260256 7.3276222026
O 13.6136657473 7.5312829287 3.6011636656
O 7.7741817031 5.6195117581 3.7054812686
O 7.7327423767 5.6941725098 6.8434633792
O 15.2816300608 3.5384084419 4.0723523850
O 15.1462850359 3.6103957602 7.0463514761
