95
i =      117, E =     -1127.6042647428
C -0.007005333 -0.0583714611 -0.8009749525
C 1.2266028477 0.6541528638 -0.8057094988
C 2.4609007715 -0.0586974154 -0.7923968000
C 3.6977621321 0.6533658977 -0.7814720751
C 4.9304837811 -0.0594253903 -0.7655056088
C 6.1672043826 0.6529637825 -0.7454945502
C 7.3998445029 -0.056641487 -0.7319548257
C 8.6361336379 0.6675639193 -0.6959723769
C 9.8735085967 -0.057010256 -0.7368338199
C 11.1065794728 0.652373762 -0.7579631664
C 12.3428121515 -0.0593635535 -0.7788442220
C 13.5760183175 0.6538419644 -0.8017544310
C 1.2265002334 2.0795940172 -0.8093221562
C 2.4616886345 2.7947466822 -0.7872044252
C 3.6990259604 2.0817324231 -0.7692140068
C 4.9290720445 2.7917349701 -0.7194973309
C 6.1638547796 2.08035949 -0.7055209231
C 7.3931806185 2.796978417 -0.5650558256
C 8.634990084 2.0723786291 -0.5929737963
C 9.8785382876 2.7979753417 -0.5866381106
C 11.1092697871 2.0805251695 -0.7284485083
C 12.3431103354 2.7917450107 -0.7548931371
C 13.5744373699 2.081164044 -0.8008415263
C 14.8115456406 2.7943504525 -0.8091529110
C 2.4614665572 4.2185606725 -0.7665662125
C 3.6968996124 4.9329184154 -0.7289201583
C 4.9314089946 4.2164579692 -0.6909655404
C 6.1681825632 4.9212612064 -0.5438795653
C 7.3355264983 4.1772747984 -0.2992211296
C 9.9378893528 4.1777722822 -0.3442157336
C 11.1057427052 4.92095459 -0.5838921023
C 12.3412097769 4.2163413946 -0.7327263156
C 13.5768662512 4.9332127682 -0.7653900031
C 14.8121970086 4.2189786499 -0.7893215925
C 16.0467711102 4.9337415055 -0.7662879079
C 3.6991027642 6.3553949881 -0.7047902459
C 4.9446526634 7.0635459266 -0.6541350511
C 6.1617447089 6.3598071979 -0.5506218413
C 7.4118122976 7.073469966 -0.5377663630
C 8.639573828 6.4325791298 -0.3093265321
C 9.8637880452 7.0733843485 -0.5523561504
C 11.1135752308 6.3597172406 -0.5811469348
C 12.3295903802 7.063419619 -0.6872147860
C 13.5752417411 6.3549495323 -0.7375808045
C 14.8083485379 7.0692851819 -0.7494632060
C 16.0471783549 6.3544297965 -0.7521275681
C 17.2866593653 7.0696833724 -0.7333592890
C 4.9356287916 8.4971200059 -0.6977202606
C 6.1666793143 9.2103651503 -0.7135345659
C 7.4046493003 8.498635993 -0.6712694181
C 8.6372286333 9.2122836362 -0.6981738997
C 9.8699792467 8.4985797143 -0.6841474582
C 11.1078146637 9.2098999112 -0.7309166797
C 12.3384866352 8.4969909276 -0.7229776487
C 13.5732770692 9.2076668204 -0.7444953799
C 14.8116025378 8.4970246052 -0.7439512390
C 16.0473714684 9.2102813983 -0.7420956931
C 17.2834492304 8.4965581424 -0.7332487152
C 18.521516496 9.207374992 -0.7286423882
C 6.1678918148 10.6366219037 -0.7514580004
C 7.4016837358 11.3485851898 -0.7725227794
C 8.636838224 10.6338944471 -0.7533411816
C 9.8726121134 11.3489075321 -0.7721790222
C 11.10641928 10.6369351781 -0.7568023313
C 12.3428404704 11.3484543539 -0.7546926436
C 13.5734433924 10.6380083027 -0.7506098416
C 14.812482648 11.3531901533 -0.7478689020
C 16.04699077 10.6371810126 -0.7446801350
C 17.2817940969 11.3537809097 -0.7474115570
C 18.5210869327 10.6382818522 -0.7450955710
C 19.7511205143 11.3484314566 -0.7550339151
Ti 8.9253794273 5.0237598318 9.7144228317
O 8.9833916876 4.9814597154 11.3674658433
O 8.8009015746 3.211490594 8.9700171660
O 7.3693091624 6.0135477843 8.9732270677
O 10.510936939 5.8529495724 8.8802241684
Ti 8.7555787256 3.1253119332 7.1673492203
Ti 10.5233007874 5.8563204465 7.0769206974
Ti 7.2754847801 6.0274867785 7.1786160395
O 11.4134577954 6.3227025919 5.3662633214
O 6.3004803492 6.5715226815 5.5529126176
O 8.6568387854 2.0080593085 5.5574838703
Ti 8.6043357942 3.0385492873 4.0347349551
Ti 10.3616783566 5.7956422304 3.9513812873
Ti 7.1249838633 5.9207031024 4.0474202827
O 8.5711037779 3.1444605668 2.1224928301
Ti 8.6419209922 4.8898684147 1.4225040390
O 10.226257814 5.6975987074 2.0488880196
O 7.1859393113 5.8438077457 2.1319048726
O 10.2339411776 4.093615278 6.7656892593
O 7.3677414826 4.2496159845 6.8548939714
O 10.1060060235 4.0184806551 4.1727798587
O 7.1734267568 4.1102243189 4.2613310730
O 8.93315217 6.6553225755 6.7663683139
O 8.771150201 6.6461267217 4.1703298054
