96
i =       58, E =     -1133.5382587312
C -0.0054496766 -0.0078832572 -0.4072471354
C 1.2300706996 0.704709444 -0.3868327566
C 2.4649091286 -0.007823959 -0.3582392278
C 3.7008451853 0.705321144 -0.3453980655
C 4.936408936 -0.0072430888 -0.3409239170
C 6.1714202291 0.7055884904 -0.3552560332
C 7.4066890935 -0.0071197267 -0.3637084366
C 8.6414947992 0.7053329811 -0.4216151643
C 9.8739931186 -0.0080568941 -0.4220502668
C 11.1089778311 0.7050952167 -0.4791153467
C 12.3446904173 -0.007772217 -0.4451908297
C 13.5793714299 0.705954744 -0.4646102691
C 1.2289127488 2.1310638378 -0.3937476211
C 2.4640930564 2.8434740121 -0.3540418389
C 3.7004043624 2.1304864539 -0.3422795447
C 4.9368064967 2.843407399 -0.3483801159
C 6.1713495698 2.1309642534 -0.3713885918
C 7.4068760816 2.8438672391 -0.4313007145
C 8.6417333718 2.1309875738 -0.4804932474
C 9.8724145041 2.843892619 -0.5685608646
C 11.1091956335 2.1301106185 -0.5632934753
C 12.3452676201 2.8427551572 -0.5841888702
C 13.5791495346 2.1310552549 -0.5171642180
C 14.813851759 2.8428545854 -0.4507428395
C 2.4638914851 4.2694659984 -0.3390489067
C 3.7002705641 4.9829525186 -0.3220545238
C 4.9364696163 4.2698830356 -0.3437432625
C 6.1712909171 4.9828251313 -0.3766698279
C 7.4065862587 4.2694965012 -0.4424643290
C 8.6407826459 4.9822951144 -0.5148093206
C 9.8725306562 4.2699733629 -0.5898771395
C 11.108115052 4.9836636391 -0.6018080858
C 12.3420164147 4.2693858195 -0.5780232947
C 13.5755745366 4.9820141144 -0.4692154834
C 14.8135027634 4.2674898096 -0.4198748330
C 16.0483334306 4.9819852297 -0.3567533061
C 3.6997676179 6.4083377577 -0.3085601862
C 4.9358573844 7.1215373562 -0.3246944292
C 6.1704413379 6.4086201483 -0.3654234378
C 7.4059355596 7.1211522544 -0.4017176320
C 8.6395558372 6.4081510056 -0.4726111560
C 9.874782484 7.1212700118 -0.4771900052
C 11.1099669186 6.4084736378 -0.5348731788
C 12.3432724921 7.1221358173 -0.4608292987
C 13.5771860353 6.4104059867 -0.4301015276
C 14.8128870332 7.1220047013 -0.3583970812
C 16.0479735557 6.4087694526 -0.3330368737
C 17.2835414344 7.1218869407 -0.3032670678
C 4.9349465236 8.5483498277 -0.3273338761
C 6.1696622412 9.2608135119 -0.3526449358
C 7.4051804123 8.5466164522 -0.3766259274
C 8.6404901198 9.2604446272 -0.3818645484
C 9.8750232872 8.5479034919 -0.4114840164
C 11.1099370405 9.2615231845 -0.3872648920
C 12.3441461503 8.5475022468 -0.3942965910
C 13.5789045318 9.2608722551 -0.3471403966
C 14.8142241128 8.5474025645 -0.3324155999
C 16.0497680145 9.2618676546 -0.3111037712
C 17.283933746 8.5486144396 -0.3023739288
C 18.5198003532 9.2624422137 -0.3173345923
C 6.1690202773 10.6873946031 -0.3695033887
C 7.4046987883 11.4009661801 -0.3785256470
C 8.6402742048 10.6874408081 -0.3678038680
C 9.874965296 11.4003282178 -0.3599281906
C 11.1104267816 10.6868208436 -0.3569446543
C 12.3458017991 11.4006343565 -0.3415906555
C 13.5801717695 10.6880072452 -0.3329023508
C 14.8161029731 11.4020717939 -0.3351561940
C 16.0504436086 10.6888045694 -0.3290843102
C 17.284667159 11.4019863175 -0.3608971738
C 18.5193297665 10.6880084487 -0.3508478975
C 19.7545503838 11.4005989635 -0.3833412292
Ti 8.7171798406 0.5477397521 3.9224636114
O 7.9163383119 -0.8874655654 3.8893626011
O 10.3772903282 0.4912349793 2.8683232799
O 7.6476449212 2.0148190811 3.1496135968
O 9.2594701821 1.1277771678 5.7387489740
Ti 11.2977752028 2.0352885209 2.8415613436
Ti 10.1158259615 2.7009166319 5.8005458982
Ti 8.4640697547 3.6194363923 3.1613484436
O 11.0691568043 4.0962112829 6.8421036712
O 8.4774096527 5.5369051469 2.6883740721
O 12.8733482343 3.046544498 2.2288012691
Ti 12.8866196121 4.775884926 2.7568693643
Ti 11.6989448077 5.4139801643 5.7612156484
Ti 10.0388191684 6.3501220461 3.1262295015
O 13.7066629847 6.5793420947 2.9591085576
Ti 12.8066523671 7.7888382569 3.8932427480
O 12.6415681926 7.1395390041 5.5509663361
O 11.1721296242 7.9499629573 3.1614060904
O 11.4376181478 2.3242430622 4.6247752528
O 10.0037940212 3.1912569163 2.3214219227
O 12.7397819113 4.5737066126 4.5455391607
O 11.302213197 5.4391906958 2.2213604713
O 8.9364784377 3.7544236592 4.9048792485
O 10.2315861693 6.0150175759 4.8994366988
