87
i =       35, E =      -862.2242831526
C 0.0214396276 0.0458055621 -0.3410171292
C 1.2574356663 0.7593036627 -0.3335050918
C 2.4916964371 0.0457312443 -0.3279126803
C 3.7262463123 0.758180897 -0.3042514084
C 4.962315469 0.0448033496 -0.2917384641
C 6.1981608814 0.7562269821 -0.2887259063
C 7.4324497294 0.0436731519 -0.2870782514
C 8.6671155682 0.7577246032 -0.2924577221
C 9.9017707219 0.0444126633 -0.2963055422
C 11.135847798 0.7582259038 -0.3049400053
C 12.3716075354 0.0447791103 -0.3223641500
C 13.6065487214 0.7583911489 -0.3271457213
C 1.2579890921 2.1854420584 -0.3294099947
C 2.4918695557 2.8985061461 -0.3275304575
C 3.7240905605 2.1823529107 -0.3001309081
C 4.9623267112 2.8904426504 -0.2824257891
C 6.1998315357 2.1807594167 -0.2980812219
C 7.43232635 2.896336789 -0.3208457939
C 8.6672501838 2.1831350809 -0.3073549836
C 9.9018355405 2.8973021681 -0.3114685273
C 11.1361456827 2.1839523153 -0.3041318424
C 12.371868305 2.8982974365 -0.3068042324
C 13.6069893999 2.1851668892 -0.3157515047
C 14.8416044394 2.8989109498 -0.3225337564
C 2.4896072574 4.3255238504 -0.3425454496
C 3.7202560782 5.0420644369 -0.3339616221
C 4.9629833577 4.3250649257 -0.2912451706
C 6.2033987747 5.0399073258 -0.3603751506
C 7.4346436019 4.3222870155 -0.3505310412
C 8.6685300942 5.0372997672 -0.3539462249
C 9.9023772854 4.3238608237 -0.3284676046
C 11.1367585713 5.0374226429 -0.3195267448
C 12.372346585 4.323673716 -0.3072836531
C 13.6072224615 5.0376503117 -0.3088390331
C 14.8416119501 4.3245087051 -0.3212845677
C 16.0768942848 5.0390820644 -0.3389996600
C 3.7258025922 6.4653921901 -0.3582556892
C 4.9635429402 7.1773560609 -0.3850348749
C 6.1981188296 6.4665656798 -0.4002934752
C 7.431465637 7.1764842691 -0.3959473251
C 8.6671078566 6.4623811482 -0.3706784121
C 9.9017095004 7.1754017954 -0.3531103797
C 11.1369469445 6.4627161113 -0.3276399152
C 12.3726973758 7.1766082059 -0.3122151908
C 13.6079686168 6.463942082 -0.3066189992
C 14.8426871492 7.177157268 -0.3109125224
C 16.0769770522 6.4640114553 -0.3328064434
C 17.3106519205 7.1778841884 -0.3448484609
C 4.9616261355 8.6017843664 -0.3757581372
C 6.1962539844 9.3145052353 -0.3787214531
C 7.4309771174 8.6018614843 -0.3871347070
C 8.6672182851 9.3153895264 -0.3702757045
C 9.9021749687 8.6024489164 -0.3554043584
C 11.1369728673 9.315316532 -0.3305403282
C 12.3730731956 8.6019259526 -0.3107389598
C 13.6081697486 9.3147278443 -0.2954798008
C 14.8431484657 8.602343499 -0.3008354879
C 16.0770253225 9.3157909093 -0.3071817191
C 17.3116361852 8.6035124172 -0.3324726652
C 18.5465479462 9.3150899767 -0.3457835983
C 6.1962222006 10.7411396563 -0.3606613463
C 7.4311602958 11.4543732852 -0.3571581934
C 8.6669546348 10.7409458122 -0.3594246761
C 9.9021912195 11.4538094343 -0.3394207453
C 11.136791151 10.7409081126 -0.3231437275
C 12.3727583121 11.4543018077 -0.2977017316
C 13.6080395036 10.7410694362 -0.2890816947
C 14.8426197036 11.4530779471 -0.2853166302
C 16.0776010232 10.7395224518 -0.2945178451
C 17.3115765782 11.4523061279 -0.3018054691
C 18.5460828844 10.739776793 -0.3267840766
C 19.7812133023 11.4537735713 -0.3379835242
Ti 5.1850202484 4.3085344624 2.3702812579
O 6.4300995144 5.8512760311 2.4176707218
Ti 5.707069378 7.0071901014 3.5595959051
O 4.6252344418 8.1853750218 2.7816940356
O 5.6514009337 6.8978432195 5.4580080941
Ti 2.7260925448 8.0876098588 3.2627949727
O 1.8104043518 9.3862855767 2.8719946193
O 1.8512403408 6.4118599323 2.8646484411
Ti 2.5104965515 4.9233836992 3.5958287917
O 3.2932880578 3.7699788859 2.4938672484
Ti 3.8914622963 6.3121667905 5.6380421019
O 2.9632018537 7.7074683793 5.1894179148
O 6.0213182099 3.0510303508 2.9619781654
O 2.6473163935 4.9001137611 5.4623908499
O 4.3019880531 5.6898368778 3.7920843571
