      81
 i =       47, E =      -681.3585857214
  C         0.0436729989        0.0555857315       -0.2661273658
  C         1.2787747088        0.7684646798       -0.2695993556
  C         2.5133637779        0.0551498748       -0.2762196722
  C         3.7478383703        0.7681663924       -0.2732011172
  C         4.9827077252        0.0548124649       -0.2727489620
  C         6.2169946593        0.7676699509       -0.2670072050
  C         7.4512431812        0.0544810822       -0.2569257836
  C         8.6864676761        0.7668535851       -0.2419349951
  C         9.9232940957        0.0556849193       -0.2334597176
  C        11.1597703144        0.7674923219       -0.2297916055
  C        12.3951301387        0.0550675006       -0.2420336710
  C        13.6290263789        0.7685088444       -0.2527086562
  C         1.2788254865        2.1945518644       -0.2669559302
  C         2.5131247875        2.9077534285       -0.2685920016
  C         3.7477076749        2.1941404161       -0.2711130257
  C         4.9817526377        2.9082780287       -0.2774021007
  C         6.2160588144        2.1947595613       -0.2760154579
  C         7.4484834189        2.9081948881       -0.2900852558
  C         8.6820860658        2.1921688928       -0.2565763812
  C         9.9231641369        2.9042939745       -0.2611557302
  C        11.1644531864        2.1925005895       -0.2432783202
  C        12.3976272925        2.9088131039       -0.2697065577
  C        13.6303403832        2.1955767549       -0.2600799239
  C        14.8647031149        2.9088554154       -0.2680379929
  C         2.5131647514        4.3341592099       -0.2686500797
  C         3.7475820871        5.0476407392       -0.2743634736
  C         4.9816251938        4.3340567387       -0.2848133758
  C         6.2147517061        5.0485802342       -0.3120637769
  C         7.4467681995        4.3354428584       -0.3279776434
  C         8.6790424697        5.0553240001       -0.3688443390
  C         9.9232448409        4.3407325142       -0.3443001006
  C        11.1669586189        5.0554430156       -0.3515611059
  C        12.3990828638        4.3357168149       -0.3058388791
  C        13.6307557752        5.0485025233       -0.2940360700
  C        14.8647985511        4.3344249495       -0.2748992118
  C        16.0987866794        5.0477839224       -0.2701579100
  C         3.7484013345        6.4734448348       -0.2737776667
  C         4.9833380800        7.1865656559       -0.2881307452
  C         6.2171779452        6.4749233293       -0.3184225985
  C         7.4511711960        7.1887650640       -0.3512502992
  C         8.6854775325        6.4809860847       -0.3872463027
  C         9.9226535115        7.1894084993       -0.3819472488
  C        11.1600411334        6.4802615217       -0.3671851214
  C        12.3946252445        7.1886701630       -0.3281696617
  C        13.6285000591        6.4748809996       -0.2999263725
  C        14.8629456239        7.1863662534       -0.2783895776
  C        16.0984303273        6.4736458319       -0.2696458535
  C        17.3334356410        7.1861319852       -0.2663066159
  C         4.9837300310        8.6124769653       -0.2803389910
  C         6.2179344458        9.3248273111       -0.2920335085
  C         7.4526588388        8.6137346573       -0.3276637410
  C         8.6879178476        9.3250678688       -0.3288831661
  C         9.9233868546        8.6132273541       -0.3491819334
  C        11.1587496215        9.3249569407       -0.3205135949
  C        12.3937312192        8.6133623254       -0.3118849178
  C        13.6282550293        9.3243049465       -0.2840743884
  C        14.8629318032        8.6121253070       -0.2737371629
  C        16.0984550293        9.3248894950       -0.2622413955
  C        17.3335352199        8.6125801628       -0.2624952244
  C        18.5684287885        9.3250790914       -0.2636334718
  C         6.2186785865       10.7512490893       -0.2749722942
  C         7.4532548892       11.4638070788       -0.2792400839
  C         8.6886706873       10.7506278786       -0.2983653254
  C         9.9233352327       11.4630482412       -0.2902010197
  C        11.1580137554       10.7502110015       -0.2960414015
  C        12.3931199923       11.4630743358       -0.2799619183
  C        13.6276469524       10.7506222321       -0.2749381640
  C        14.8626649624       11.4631737242       -0.2611282753
  C        16.0982330913       10.7510607583       -0.2550536588
  C        17.3334613249       11.4639869700       -0.2438289959
  C        18.5688803692       10.7509998066       -0.2523172802
  C        19.8037731260       11.4636366267       -0.2542593325
 Ti         8.3487731934        5.8621608680        3.8678390482
 Ti        11.1811635828        6.0265832107        3.7938090239
 Ti         9.8432105902        4.2613279885        2.0788365738
  O         8.4191406308        4.0112242933        3.0678633777
  O        11.3023008678        4.1738539564        3.0572531754
  O         9.7696707350        6.3310981241        4.9968036256
  O         9.7287253202        6.0926112796        2.3964004003
  O        12.3660612530        7.1398924123        3.5205351206
  O         7.0003373929        6.8114544494        3.7926405554
