97
i =      355, E =     -1149.5358242169
C 0.2365748114 0.7207987011 -0.2152617849
C 1.4718693443 1.4346654571 -0.2000792904
C 2.7061180841 0.7234852119 -0.2035953213
C 3.9412338859 1.4333638417 -0.1860324220
C 5.1754769324 0.7209615222 -0.1854976836
C 6.4108674086 1.433380043 -0.1775612711
C 7.6434322977 0.7209211066 -0.1767886087
C 8.8815985182 1.4378580979 -0.1752224576
C 10.1156890565 0.7207868399 -0.1774682388
C 11.3507761996 1.4354825664 -0.1806066110
C 12.58767672 0.7205549838 -0.1954933180
C 13.8188831503 1.4325463292 -0.1963121215
C 1.4717861371 2.860029196 -0.1810398716
C 2.7052068234 3.5724097967 -0.1736409285
C 3.9408385152 2.8600739689 -0.1766595484
C 5.175902765 3.573408577 -0.1830263408
C 6.4102466418 2.8602241338 -0.1824668142
C 7.6441494817 3.5709921542 -0.1936801341
C 8.8772886104 2.8619357823 -0.1787110778
C 10.1143601905 3.5858693734 -0.1745874094
C 11.3528815274 2.8614080091 -0.1764261040
C 12.5878255933 3.57114314 -0.1835186709
C 13.8218741029 2.8586825673 -0.1845921360
C 15.0573839364 3.5705950612 -0.1788514432
C 2.7060488333 4.9966761756 -0.1730546886
C 3.9414582237 5.708335996 -0.1931603649
C 5.1729438833 4.9964476256 -0.2040317066
C 6.4071122176 5.7095882629 -0.2451991313
C 7.6404537859 4.9981880468 -0.2293837978
C 8.8711444203 5.7173276669 -0.2148678217
C 10.1140610202 4.9969441084 -0.1727835015
C 11.3572447692 5.7145621972 -0.1677033718
C 12.5899684282 4.997294644 -0.1850289361
C 13.8223131974 5.7087006733 -0.1787499310
C 15.0586949729 4.9965001505 -0.1733684928
C 16.2928987794 5.7099767467 -0.1714939092
C 3.9409756312 7.1338102876 -0.2089657213
C 5.1745908351 7.8464970831 -0.2556666304
C 6.407420521 7.1302221312 -0.2865754073
C 7.6469471053 7.8387816805 -0.2777911105
C 8.8542647973 7.1249570065 -0.2008649326
C 10.0996694831 7.8527148845 0.2210967725
C 11.3724494254 7.1221951231 -0.1184536918
C 12.5848689725 7.8400678992 -0.1611737111
C 13.8226529635 7.1324511246 -0.1812429942
C 15.059001202 7.8468000163 -0.1787274575
C 16.2924462634 7.1347675549 -0.1756500658
C 17.5254552713 7.848769559 -0.1864685080
C 5.1762149259 9.2707022387 -0.2435539353
C 6.4203522492 9.9813023768 -0.2552932043
C 7.6434721557 9.2748851795 -0.2572699205
C 8.8876778068 9.9935468834 -0.2418366346
C 10.1115081454 9.3055880131 -0.1635332907
C 11.3406000045 9.9927878302 -0.1878175124
C 12.5861726445 9.2757103394 -0.1612731804
C 13.8077685536 9.9807884822 -0.1724227628
C 15.0557831185 9.2703280459 -0.1750001032
C 16.2886071874 9.9856260377 -0.1793717991
C 17.5259002108 9.2707106454 -0.1903667834
C 18.7654800831 9.9841191199 -0.2094242694
C 6.4135556882 11.4149748918 -0.2408314595
C 7.6458101377 12.1298281632 -0.2469176120
C 8.8825703356 11.4206919414 -0.2561010382
C 10.1140448213 12.1316663749 -0.2269868842
C 11.3482354308 11.418711964 -0.2144169682
C 12.5869459854 12.1309332676 -0.1944942194
C 13.8172417335 11.4156034346 -0.1809977423
C 15.0530018541 12.1241689569 -0.1773740823
C 16.289596255 11.4126371646 -0.1780334820
C 17.5250001347 12.1268960844 -0.1820141596
C 18.7627362458 11.4121194339 -0.1990965066
C 19.9996126247 12.1253332276 -0.2118973779
O 10.1035535347 7.8801011486 1.6532708295
Ti 3.3623198953 5.8286251769 4.7794163274
O 1.7125865687 5.8549884654 4.7242854287
O 4.0828152275 4.0125872573 4.5333286601
O 4.1220613997 6.9725507532 3.3364082461
O 4.1612082132 6.4260359412 6.4808290483
Ti 5.8967811299 3.930658281 4.5439668669
Ti 5.9638003616 6.4636323326 6.5603744295
Ti 5.9233099027 6.9393476625 3.3822879186
O 7.6430256443 6.9783280485 7.4117869699
O 7.4171879121 7.687674509 2.5038223749
O 7.5606209485 2.9618214136 4.2492248477
Ti 9.0173845594 4.0952522314 4.2346626776
Ti 9.0945246768 6.7187391314 6.3169493256
Ti 9.1044976023 7.1258341145 3.0532803857
O 10.9128740117 4.0004918619 4.4552406367
Ti 11.6679852426 5.6019906847 4.9589702427
O 10.9691065686 6.3402538197 6.4793360589
O 11.2575033981 6.6505588968 3.7074473739
O 6.2423459657 4.7260469574 6.1218081781
O 6.2086658707 5.1459489307 3.2400938764
O 8.7431393458 5.048543599 5.7263414656
O 8.9055876263 5.3030885828 2.8693559021
O 6.2588224891 7.4538446144 5.0827043214
O 9.069964581 7.7154444305 4.8125883866
