118
i =      123, E =     -1782.6269962174
C 0.0071658396 0.1123051634 -0.2942385675
C 1.2417763324 0.828445899 -0.3046034480
C 2.4781077793 0.1137457247 -0.2701208358
C 3.7148818461 0.8275156672 -0.2805365887
C 4.947283957 0.1165847365 -0.2775302718
C 6.1853221496 0.8284375167 -0.2917132490
C 7.4194557297 0.1155050777 -0.3016211986
C 8.6534168437 0.8281167582 -0.3335451114
C 9.888813491 0.1176339673 -0.3327881760
C 11.1216445383 0.8304465524 -0.3632623792
C 12.3566116937 0.1180415077 -0.3274230820
C 13.5897257883 0.8297412242 -0.3478550838
C 1.240355072 2.2564092907 -0.3630135570
C 2.4797496021 2.9693525747 -0.3339249251
C 3.7164897796 2.2573448736 -0.2921968524
C 4.9521121043 2.9668791989 -0.2714740380
C 6.1865238798 2.2554711259 -0.2877497463
C 7.4224978273 2.9651756561 -0.2969305434
C 8.6524450058 2.2544789929 -0.3492262382
C 9.8844008933 2.9677506253 -0.3963431950
C 11.1215033773 2.2557380148 -0.4130363909
C 12.3528677068 2.968511924 -0.4358905841
C 13.5891568914 2.2598276367 -0.4185646473
C 14.8259160814 2.9695355973 -0.4344648111
C 2.4824874249 4.3969191668 -0.3455721753
C 3.7135493402 5.1092846856 -0.2791388456
C 4.9594085409 4.4000189842 -0.2366420234
C 6.1850580602 5.1030514332 -0.1693289663
C 7.4310428691 4.3912381526 -0.2115697933
C 8.658195432 5.0814832333 -0.1705456987
C 9.8788844363 4.395943719 -0.3342843045
C 11.1234527204 5.1058939668 -0.3533835504
C 12.3441817431 4.4013656383 -0.4361490787
C 13.5916535033 5.1093630838 -0.4578610687
C 14.8259045112 4.3956919855 -0.4643820746
C 16.0617733606 5.1081203061 -0.4039666560
C 3.7136250757 6.5328881674 -0.2708169351
C 4.9488578753 7.2487195545 -0.2119594870
C 6.1901833876 6.5418274292 -0.1357279343
C 7.399976615 7.2547245653 -0.0428844535
C 8.6770739333 6.5176385929 0.2914026435
C 9.9182403911 7.2563298709 -0.1387597943
C 11.1224293623 6.5405490483 -0.2936128949
C 12.358640017 7.2490005898 -0.3494229634
C 13.5946638248 6.5333349519 -0.4048206004
C 14.8287755657 7.2452840994 -0.3701293520
C 16.0628470027 6.5310604425 -0.3662979874
C 17.2989596849 7.2450524444 -0.3084530170
C 4.9466647112 8.6718392842 -0.2183280901
C 6.1808185073 9.3824841857 -0.1933812815
C 7.4133474766 8.6619993926 -0.1184034067
C 8.6562801237 9.3858647035 -0.1398089064
C 9.8991512145 8.6664661915 -0.1768612140
C 11.1284965191 9.3843452993 -0.2551278597
C 12.3597720346 8.6726099841 -0.3014926385
C 13.5959230385 9.3851213522 -0.3045117551
C 14.8292698841 8.6709772889 -0.3241578215
C 16.0632769845 9.3854023598 -0.2985470609
C 17.2994565181 8.6730156585 -0.2885698473
C 18.53069473 9.3860219865 -0.2604391282
C 6.1825902161 10.8129388443 -0.2353027123
C 7.4148424026 11.5225479099 -0.2338549009
C 8.6527021066 10.7981934361 -0.1977640655
C 9.8911799151 11.5221099525 -0.2372480873
C 11.1254854928 10.8114882566 -0.2555202274
C 12.3598756765 11.5243651345 -0.2741547929
C 13.5952981945 10.812187704 -0.2848249044
C 14.8289924411 11.523833925 -0.2902563986
C 16.0626943082 10.8114123098 -0.2896714712
C 17.2981895194 11.5249811565 -0.2966714975
C 18.5330860678 10.8108771669 -0.2767807729
C 19.7676402763 11.5251880314 -0.2774021767
O 8.7546398094 6.5055442086 1.7363960054
Ti 11.8157764275 4.171675838 5.8588205123
Ti 13.9919246927 2.7388156687 3.3458517625
Ti 14.0665077333 2.7792108874 8.3065500489
Ti 9.6779396489 5.5351183962 8.3483559964
Ti 9.5399519214 5.6396631923 3.1764815624
Ti 13.2628723462 5.5406284023 8.5493948610
Ti 13.2120686719 5.5167833269 3.1261611348
Ti 10.4694814596 2.7606665014 8.6399009633
Ti 10.5210007553 2.772439852 3.2903178606
Ti 12.8526481014 0.7384076942 5.7945824908
Ti 10.9120657613 7.529987711 5.8860964207
Ti 13.7583166222 7.1536182032 5.7943594397
Ti 10.0102235465 1.131367998 5.8370939728
Ti 15.0454151409 4.0485864836 5.8037800801
Ti 8.6693385735 4.2788043322 5.7673089335
O 9.5329050415 3.8498094674 2.3008420620
O 9.5029782568 4.0853792495 9.5352748885
O 14.2200071763 4.2471733422 9.4610660917
O 14.2163810387 4.2495175189 2.2189521031
O 12.1674651526 2.4964226966 8.9889204910
O 12.1839688825 2.4860264908 2.6752141703
O 11.5870009793 5.7726150736 8.9871408555
O 11.532305901 5.6961408901 2.6751251811
O 11.251886657 -0.2345920416 5.8357161644
O 12.5115571594 8.5054460002 5.7513374590
O 13.7544490341 1.0358522399 4.2691935502
O 13.7154573604 1.1204561884 7.3085488987
O 10.0075974374 7.2175523967 7.4067877157
O 10.0321632372 7.1286774472 4.4271568027
O 8.4305846803 2.5704543748 5.7498969713
O 15.2872512842 5.7700181611 5.7453481820
O 10.4186771145 4.2542270174 4.6289788407
O 10.4696610792 4.1538954481 7.2043829171
O 13.2973586729 4.0962721853 7.1272886080
O 13.2859664857 4.0913171854 4.5505307222
O 12.1673187779 6.0320301039 5.8367167226
O 11.647749282 2.2381392162 5.7371945928
O 9.7386399683 1.2744924561 3.9756092515
O 9.7735287632 1.3679466943 7.6953396818
O 13.9449573485 6.9808411322 7.6822235174
O 13.9365418989 6.9812663314 3.8870598324
O 8.1033603026 5.200882324 4.2654548096
O 8.1970872361 5.213683483 7.3173811211
O 15.557064396 3.0530292953 4.3461286230
O 15.5970008041 3.1252540023 7.3221370565
