77
i =       46, E =      -517.1309585538
C -0.014068712 0.0263078409 -0.1198740922
C 1.2201606333 0.7404275601 -0.1074560066
C 2.4551271146 0.0261450933 -0.1131855232
C 3.6910086695 0.7403843998 -0.1021338526
C 4.9249615547 0.0278585454 -0.1031818327
C 6.1599713723 0.7416698729 -0.1035932998
C 7.3954891235 0.0280371638 -0.1007905101
C 8.6302180621 0.7418803923 -0.1125670961
C 9.865145217 0.0272430005 -0.1083451796
C 11.1008189854 0.7402582725 -0.1195547773
C 12.3349866009 0.0275315978 -0.1176035805
C 13.5696385858 0.7409930089 -0.1157176522
C 1.2203745385 2.1669358052 -0.0982493156
C 2.4554311118 2.8807217339 -0.0972923247
C 3.6916993487 2.1673437001 -0.0996958108
C 4.9261737123 2.8808395847 -0.1144407088
C 6.1607850897 2.166931967 -0.1199898074
C 7.3957103089 2.8798585182 -0.1511754969
C 8.6301097032 2.1675082978 -0.1428346214
C 9.8653814262 2.8798714613 -0.1669140927
C 11.100543603 2.1667640669 -0.1435524984
C 12.334716647 2.8807381681 -0.1434327391
C 13.5699924574 2.1664596783 -0.1176808635
C 14.8060720629 2.8799685321 -0.1075735128
C 2.4564967492 4.3059262431 -0.1034641592
C 3.6927773846 5.018920659 -0.1206558301
C 4.9274471931 4.3068619843 -0.1342426270
C 6.161271285 5.0188469794 -0.1737041318
C 7.3945890807 4.3036609698 -0.1828193456
C 8.6311603477 5.0125567861 -0.2111966038
C 9.8674640251 4.3044923382 -0.2074426869
C 11.1018382012 5.0199592705 -0.2117132379
C 12.3341634735 4.3075130923 -0.1695198082
C 13.5696629101 5.0205073346 -0.1467843313
C 14.8053565792 4.3067269588 -0.1161875080
C 16.0407277958 5.0195774205 -0.1075542539
C 3.6923493252 6.4450109133 -0.1307045081
C 4.9253762257 7.1577668947 -0.1612550364
C 6.1594409784 6.443167756 -0.1900090294
C 7.3897106886 7.1602787328 -0.2133468581
C 8.6300017872 6.4450949232 -0.2121588936
C 9.8707488082 7.1618279037 -0.2246060698
C 11.1041415732 6.4458924289 -0.2212878556
C 12.3358446704 7.158625808 -0.1850904885
C 13.5696857832 6.4454407624 -0.1534350830
C 14.805789528 7.1582071619 -0.1237006847
C 16.040346904 6.445405397 -0.1110762569
C 17.2754681199 7.1585863529 -0.1134044956
C 4.9254764903 8.5838594378 -0.1545899353
C 6.15940429 9.2981098272 -0.1761156465
C 7.3933307978 8.5863700889 -0.2051313631
C 8.6280180392 9.2979960941 -0.1991721648
C 9.8638951722 8.5870532341 -0.2004515452
C 11.1005691945 9.2979675613 -0.1727447505
C 12.3344830305 8.5841492855 -0.1631948995
C 13.568676448 9.2971033264 -0.1270802584
C 14.8055185601 8.5839140322 -0.1147222100
C 16.0400442028 9.2971527085 -0.1003713935
C 17.2756418625 8.5832220217 -0.1090320920
C 18.5120426933 9.2962766038 -0.1222480463
C 6.1601074693 10.7217930107 -0.1516885355
C 7.3956335522 11.4350518536 -0.1465488222
C 8.6291375448 10.7216950684 -0.1646846127
C 9.8638373421 11.435707154 -0.1406656278
C 11.1000795321 10.7226900096 -0.1441124290
C 12.3347904999 11.436264638 -0.1165994709
C 13.5694554092 10.7223763691 -0.1103443998
C 14.8056295461 11.4360126513 -0.0961967801
C 16.0399166761 10.723397593 -0.0948761923
C 17.2749557888 11.4366897322 -0.0997675895
C 18.5112153107 10.7229320745 -0.1136900400
C 19.7452203829 11.435760839 -0.1253910192
O 10.5531131697 6.0951076591 2.6918387740
H 10.9324405866 5.2550683614 2.9950654467
O 8.2514371189 8.169026604 2.5048037049
Ti 8.7308286612 6.5108420374 2.3808433019
O 7.4609085452 5.3857093263 2.5968420216
