88
i =      164, E =      -878.2184148520
C 0.118579709 0.3522332521 -0.2844186679
C 1.3527503388 1.0675103111 -0.2822491583
C 2.5878335312 0.3536978107 -0.2872183110
C 3.8260299377 1.0679203393 -0.2833513318
C 5.0581296574 0.356602912 -0.2821901585
C 6.2951930856 1.0694230015 -0.2765880643
C 7.530375372 0.3553786055 -0.2764275463
C 8.7635261652 1.0658151607 -0.2702672008
C 9.9972711036 0.3563051986 -0.2753689021
C 11.2319860437 1.0693127989 -0.2732106544
C 12.467671245 0.3563106161 -0.2791628326
C 13.6996373114 1.0681970574 -0.2784985633
C 1.3519575261 2.494586445 -0.2769041581
C 2.5894156162 3.2087370638 -0.2769869024
C 3.8282875642 2.4975647913 -0.2778739239
C 5.0622775411 3.2071756139 -0.2681103706
C 6.2946359922 2.4949163355 -0.2697837714
C 7.5323189419 3.2051267747 -0.2539977468
C 8.7626412665 2.4926904372 -0.2569276623
C 9.9953754505 3.2055255622 -0.2508292292
C 11.233902941 2.49340534 -0.2647821872
C 12.4642094811 3.2070546372 -0.2604939752
C 13.6981740029 2.4988215775 -0.2707175673
C 14.9355862251 3.2090207284 -0.2726860119
C 2.591639672 4.6364485929 -0.2776677340
C 3.8241688273 5.3500669209 -0.2756192338
C 5.0699687027 4.6403959518 -0.2585494648
C 6.2929149907 5.3467878817 -0.2290670112
C 7.5399192365 4.632052579 -0.2133021639
C 8.7639221374 5.3215516103 -0.1588192151
C 9.9888875942 4.6319198661 -0.2131120220
C 11.2358976997 5.3475889139 -0.2314370863
C 12.4564430548 4.6404348828 -0.2540975816
C 13.7021605859 5.3501508792 -0.2740735268
C 14.9352363681 4.6351810747 -0.2755352277
C 16.1727407611 5.3488056495 -0.2798959149
C 3.8225569611 6.7736847924 -0.2862040853
C 5.0548852957 7.490384151 -0.2893940821
C 6.2944467153 6.783351775 -0.2553806058
C 7.5019039907 7.5018632461 -0.2229617033
C 8.7704999393 6.7909082189 0.1650759722
C 10.0275747093 7.5025823728 -0.2490658061
C 11.237229487 6.781882776 -0.2741689758
C 12.4733535825 7.4901266328 -0.3056807824
C 13.706005992 6.7743777821 -0.2918602055
C 14.9398301097 7.4863519772 -0.2903953855
C 16.1731161176 6.7708160788 -0.2822305008
C 17.4078962543 7.486393777 -0.2864445381
C 5.0547633556 8.9118997894 -0.2954303704
C 6.288660172 9.6254855923 -0.3050080919
C 7.5200076334 8.9081439658 -0.2865593256
C 8.7646710176 9.6273637284 -0.2903988451
C 10.008465292 8.9112192064 -0.3071470355
C 11.2389902215 9.6269983512 -0.3235383255
C 12.4721114244 8.913295533 -0.3137709962
C 13.7060166229 9.6264890206 -0.3002041007
C 14.9406566587 8.9119545815 -0.2941355457
C 16.1732829906 9.6256763637 -0.2890317142
C 17.4075832035 8.9130746272 -0.2893016770
C 18.6404140135 9.6264858057 -0.2913123896
C 6.2906172068 11.0545179034 -0.3001868462
C 7.5247654625 11.7628900731 -0.2931112407
C 8.7631790166 11.037808315 -0.2954211879
C 10.0016273385 11.7628194225 -0.2966478281
C 11.2368619536 11.0540402115 -0.3065024424
C 12.4703895405 11.7656305871 -0.2917436149
C 13.7045771245 11.0530863822 -0.2916624908
C 14.9391207581 11.7637708791 -0.2837025181
C 16.1728247939 11.0503968851 -0.2849514096
C 17.4073400732 11.7638097916 -0.2825219175
C 18.6429530934 11.0510108067 -0.2886058047
C 19.8768070315 11.7647774194 -0.2898566212
O 8.8111695276 6.9274874829 1.5717509906
Ti 7.1503948327 6.8885793701 6.3373244584
O 8.6714309269 7.7788192457 7.1231256123
Ti 9.9924460686 7.3829868491 5.9080739505
O 11.2036406246 6.0987479468 6.2026902855
O 9.9650900497 7.9342317202 4.1659264780
Ti 11.0974649017 4.5070223528 5.0784946659
O 12.4623979186 3.6019911444 5.0029303582
O 9.4425623488 3.5367331097 5.3773455591
Ti 7.9136197925 4.402168755 4.9663610642
O 6.6271229138 5.0445927035 6.1164239846
Ti 9.2993884018 6.3302214194 3.2699883785
O 10.73215052 5.3071989758 3.3262966929
O 6.2466970015 7.9379879718 5.4607552229
O 7.9190489282 4.8884965477 3.2388067362
O 8.6585191831 6.1749003505 5.1875277955
