82
i =      123, E =      -697.3571826702
C -0.0521195572 0.00839516 -0.1071595545
C 1.1833595307 0.7224726046 -0.1082255917
C 2.4175805802 0.0106779487 -0.1076079291
C 3.6528721728 0.7211060636 -0.1061105455
C 4.8879659092 0.0080018455 -0.1036405959
C 6.1231672926 0.7202556849 -0.1005199996
C 7.3554980333 0.0089005892 -0.0961307992
C 8.5937313627 0.7268146353 -0.0905511719
C 9.8279033713 0.0102612439 -0.0867303739
C 11.0628952668 0.7256452536 -0.0872972710
C 12.3002024052 0.0090757121 -0.0934107732
C 13.5312990363 0.7205609699 -0.0991231569
C 1.183273773 2.146939589 -0.1046830573
C 2.4167708807 2.858913907 -0.1028302805
C 3.6519597945 2.1464005741 -0.1040104089
C 4.8876967049 2.8606076296 -0.1035329788
C 6.122434741 2.1476674248 -0.1023582910
C 7.3563837545 2.8598817179 -0.1004102163
C 8.5906709412 2.1498860816 -0.0886468775
C 9.8271067352 2.8732563327 -0.0737946779
C 11.0647248194 2.1500854016 -0.0821139382
C 12.2994956205 2.8611252632 -0.0906460976
C 13.5329371218 2.1477475904 -0.0985033213
C 14.7684009864 2.8595857302 -0.1016811084
C 2.4173157034 4.2844831651 -0.1027090268
C 3.6531546868 4.9968751301 -0.1047691786
C 4.8856942328 4.2831398688 -0.1046595020
C 6.1201346197 4.9963048319 -0.1036392969
C 7.3521659316 4.2855830025 -0.1004860782
C 8.5851340709 5.0060230604 -0.0625989990
C 9.8276624589 4.2851206862 -0.0476595945
C 11.0699936467 5.0055164349 -0.0348065983
C 12.3021110375 4.2862174601 -0.0813591418
C 13.5330460163 4.9963761443 -0.0858200660
C 14.7690926811 4.283731009 -0.0981493875
C 16.0034943346 4.9983417896 -0.1014311390
C 3.652433787 6.4221370438 -0.1056824883
C 4.8865504908 7.1363774838 -0.1057233372
C 6.1199994796 6.418972173 -0.1021150016
C 7.3582895264 7.127443024 -0.0598515784
C 8.5680158013 6.4116935884 -0.0000117588
C 9.818028972 7.13664105 0.4227456365
C 11.0839611335 6.4107251712 0.0470786777
C 12.2968508278 7.1287536211 -0.0133100819
C 13.5335430992 6.4209354364 -0.0735880522
C 14.7695533544 7.136502186 -0.0889368929
C 16.0034655139 6.4230409482 -0.0998982152
C 17.2370533283 7.1372461197 -0.1016116390
C 4.8883885038 8.559146836 -0.0967475135
C 6.1333048086 9.2696314801 -0.0838671543
C 7.3557313925 8.5636462192 -0.0516887823
C 8.6014346523 9.2813183334 -0.0451993601
C 9.8257243495 8.5924558295 0.0381838457
C 11.0531869831 9.2805514105 -0.0223919280
C 12.2995400144 8.5638618413 -0.0136324023
C 13.5204740388 9.2694761343 -0.0597361618
C 14.7672540373 8.5593365095 -0.0804446441
C 16.000123194 9.2756328457 -0.0911915848
C 17.2376692261 8.5604827446 -0.0977119319
C 18.4769991318 9.27424429 -0.0962780873
C 6.1258911744 10.7041779176 -0.0948485499
C 7.358070451 11.4180787333 -0.1062036728
C 8.5951605377 10.7069463161 -0.0980436915
C 9.8265096436 11.4180264842 -0.0997740125
C 11.0599370136 10.7055003282 -0.0852488932
C 12.2987043897 11.4188069765 -0.0953850971
C 13.5296111087 10.7044179429 -0.0836735551
C 14.7650447015 11.4137862829 -0.0918366719
C 16.0018432158 10.7015750906 -0.0893659626
C 17.2372595856 11.4157801092 -0.0881243574
C 18.4741598062 10.7012491276 -0.0906412197
C 19.7116461112 11.4148879918 -0.0934077130
O 9.7823547387 7.1448299287 1.8615549729
Ti 9.3883716382 5.7373425112 3.0997766191
O 7.7001674029 5.1239512457 3.0639722077
O 10.5909262406 4.4082182675 3.0567842120
Ti 10.4138422391 3.9259367153 4.9544935317
O 9.3935783433 5.6962720596 4.9888449318
O 11.7169362188 3.6100495651 5.9238863538
Ti 7.6377973299 4.5789787127 4.9560613087
O 8.7513406449 3.1243645366 5.2822895469
O 6.3054120902 4.8157416834 5.9186801794
