89
i =       16, E =      -878.8527332188
C 0.2338114974 -0.0065296128 -0.3026014803
C 1.4710034423 0.7147094178 -0.3640753829
C 2.705771913 0.0071136815 -0.4278853387
C 3.9401544083 0.7168796522 -0.4453940291
C 5.1730262226 0.0017896297 -0.4782021008
C 6.4085755148 0.714476109 -0.4477330414
C 7.6430395577 0.0005356312 -0.4412458962
C 8.8771431683 0.7127607405 -0.4074631819
C 10.1125423403 -0.0010522722 -0.3774868422
C 11.3485940933 0.7117933482 -0.3591688279
C 12.5820074291 -0.0002216392 -0.3175207668
C 13.8159514164 0.7139171964 -0.3165585286
C 1.4674829349 2.1390062469 -0.3643508500
C 2.7055776973 2.8548499244 -0.3715038900
C 3.9379214452 2.1435923766 -0.3983584456
C 5.174070048 2.8548007781 -0.3828752078
C 6.4077783362 2.1393788023 -0.4052616494
C 7.6429113174 2.8496369288 -0.3860721397
C 8.8762397367 2.1389284393 -0.3970291731
C 10.1124314751 2.8521616617 -0.3919513641
C 11.3489248007 2.1396620954 -0.3784760363
C 12.5808502968 2.8522401829 -0.3759228667
C 13.8183449929 2.1370239029 -0.3527607540
C 15.0530585075 2.8528901948 -0.3588724455
C 2.706537644 4.2830089134 -0.3472601235
C 3.9423578712 4.9922692685 -0.3144515203
C 5.1738690976 4.2798821046 -0.3355332136
C 6.4116227575 4.9904899754 -0.3133711093
C 7.6418092792 4.2778511979 -0.3515764792
C 8.8749432498 4.9883945318 -0.3653611757
C 10.1126453541 4.2768451412 -0.3955369707
C 11.3459519929 4.9902097733 -0.4094837895
C 12.5797007507 4.2812721251 -0.3983810084
C 13.8162431292 4.9947306156 -0.4004736790
C 15.0527760948 4.2814389937 -0.3731296343
C 16.2893396404 4.9951045784 -0.3591313456
C 3.9496698961 6.4254482498 -0.2692680072
C 5.1736857926 7.1294112971 -0.1973347174
C 6.4193908241 6.4149275132 -0.2210496128
C 7.6484236727 7.1014648867 -0.1719821856
C 8.8701589387 6.4151801762 -0.3153618294
C 10.1151415943 7.1275618968 -0.4052140978
C 11.3389523676 6.4230133027 -0.4422448649
C 12.5824630343 7.1339345502 -0.4827220336
C 13.8141745325 6.4207252028 -0.4382772115
C 15.053980811 7.1344762768 -0.4178601480
C 16.2908485215 6.4220972003 -0.3639189979
C 17.524672289 7.1361558699 -0.3147650427
C 5.1785084113 8.5649593128 -0.1823912611
C 6.3934046552 9.2800401558 -0.1101557652
C 7.6767705637 8.552422253 0.1926782124
C 8.9055124026 9.2733205436 -0.3118448945
C 10.1141548632 8.5572077023 -0.4736866934
C 11.3519548457 9.2706393986 -0.5715654574
C 12.5839844893 8.5573970686 -0.5400281220
C 13.8192276565 9.271437622 -0.5067838798
C 15.0540258673 8.5575344747 -0.4404579019
C 16.2889794086 9.2713744521 -0.3894744921
C 17.5238170159 8.5585568139 -0.3237839294
C 18.7599421474 9.2734713507 -0.2705380574
C 6.4035603466 10.6863417133 -0.2024341686
C 7.6411869199 11.4145555133 -0.2474020235
C 8.8851761803 10.6952796117 -0.3369673189
C 10.1228795554 11.4161368167 -0.4589011510
C 11.3521608584 10.695893298 -0.5424336023
C 12.587246676 11.4115048918 -0.5253250891
C 13.8197623327 10.6959172235 -0.5077062904
C 15.0545960618 11.4093235244 -0.4554853186
C 16.2880938405 10.6969043707 -0.4021825706
C 17.5216306653 11.410531366 -0.3591305212
C 18.7579344161 10.6964285348 -0.2959528576
C 19.9901192073 11.4071668825 -0.2742445143
O 7.4040979987 5.9349777633 2.6869858856
H 8.0116962961 5.1750217617 2.6952594430
Ti 6.9895671049 10.0409552334 4.8930999552
O 8.3350258477 11.0707533096 5.8386218822
Ti 9.7303588675 10.9281735203 4.7173694275
O 11.0235256006 9.7911956869 5.1091718522
O 9.8637347639 11.6182041967 2.9559746236
Ti 11.069227696 8.1599385069 4.0501920897
O 12.4612892736 7.2969548222 4.0749151371
O 9.4795200828 7.1293082056 4.2353270750
Ti 7.9249478639 7.5353120319 3.4272847845
O 6.6663038576 8.1788261644 4.5439913939
Ti 9.4017475458 10.0606905048 2.0757780664
O 10.753292658 8.9951134774 2.3017512255
O 6.0147729699 11.0630085361 4.0670678939
O 7.8752787035 8.6711032187 1.6734829655
O 8.6127649801 9.6384406767 3.7806125298
